// -*- C++ -*-
// File generated by PyFoam - sorry for the ugliness

FoamFile
{
 version 2.0;
 format ascii;
 class dictionary;
 location root;
 object parameters;
}

Ra 2170.24893203;

swakVariables
  (
    "G=2.01794183401;"
  );

