/*--------------------------------------------------------------------*\
|                                                                      |
|    File exported from Salome Platform using SalomeToFoamExporter     |
|                                                                      |
\*--------------------------------------------------------------------*/
FoamFile
{
	version		2.0;
	format		ascii;
	class		polyBoundaryMesh;
	location	"constant/polyMesh";
	object		boundary;
}

7
(
	left_sym
	{
	type		wedge;
	nFaces		19200;
	startFace	38080;
	}
	yeast_bottom
	{
	type		patch;
	nFaces		25;
	startFace	57280;
	}
	yeast_top
	{
	type		patch;
	nFaces		25;
	startFace	57305;
	}
	petri_bottom
	{
	type		patch;
	nFaces		215;
	startFace	57330;
	}
	petri_top
	{
	type		patch;
	nFaces		215;
	startFace	57545;
	}
	petri_outer
	{
	type		patch;
	nFaces		80;
	startFace	57760;
	}
	right_sym
	{
	type		wedge;
	nFaces		19200;
	startFace	57840;
	}
)
